<?xml version="1.0" encoding="UTF-8"?>
<routes xmlns:xsi="http://www.w3.org/2001/XMLSchema-instance" xsi:noNamespaceSchemaLocation="http://sumo.dlr.de/xsd/routes_file.xsd">
    <vType id="car" accel="2.6" decel="4.5" sigma="0.5" length="5" maxSpeed="30"/>
    <route id="route0" edges="A0B0 B0C0"/>
    <vehicle id="veh0" type="car" route="route0" depart="0" color="1,0,0"/>
</routes>
