<?xml version="1.0" encoding="UTF-8"?>
<net version="1.9" xmlns:xsi="http://www.w3.org/2001/XMLSchema-instance" xsi:noNamespaceSchemaLocation="http://sumo.dlr.de/xsd/net_file.xsd">
    <edge id="edge1" from="node1" to="node2" priority="1">
        <lane id="edge1_0" index="0" speed="13.89" length="100.00" shape="0.00,0.00 100.00,0.00"/>
    </edge>
    <junction id="node1" type="priority" x="0.00" y="0.00" incLanes="" intLanes="" shape="0.00,1.60 0.00,-1.60"/>
    <junction id="node2" type="priority" x="100.00" y="0.00" incLanes="edge1_0" intLanes="" shape="100.00,-1.60 100.00,1.60"/>
</net>
