<?xml version="1.0" encoding="UTF-8"?>

<!-- generated on 2025-11-09 18:50:42 by Eclipse SUMO netgenerate Version 1.9.2
<configuration xmlns:xsi="http://www.w3.org/2001/XMLSchema-instance" xsi:noNamespaceSchemaLocation="http://sumo.dlr.de/xsd/netgenerateConfiguration.xsd">

    <spider_network>
        <spider value="true"/>
        <spider.arm-number value="4"/>
        <spider.space-radius value="100"/>
    </spider_network>

    <output>
        <output-file value="/data/intersection.net.xml"/>
    </output>

</configuration>
-->

<net version="1.9" junctionCornerDetail="5" limitTurnSpeed="5.50" xmlns:xsi="http://www.w3.org/2001/XMLSchema-instance" xsi:noNamespaceSchemaLocation="http://sumo.dlr.de/xsd/net_file.xsd">

    <location netOffset="2000.00,2000.00" convBoundary="0.00,0.00,4000.00,4000.00" origBoundary="-2000.00,-2000.00,2000.00,2000.00" projParameter="!"/>

    <edge id=":A1_0" function="internal">
        <lane id=":A1_0_0" index="0" speed="6.51" length="9.03" shape="1998.40,2007.20 1998.05,2004.75 1997.00,2003.00 1995.25,2001.95 1992.80,2001.60"/>
    </edge>
    <edge id=":A1_1" function="internal">
        <lane id=":A1_1_0" index="0" speed="13.89" length="14.40" shape="1998.40,2007.20 1998.40,1992.80"/>
    </edge>
    <edge id=":A1_2" function="internal">
        <lane id=":A1_2_0" index="0" speed="7.80" length="13.44" shape="1998.40,2007.20 1999.19,2004.07 2001.24,2001.24 2004.07,1999.19 2007.20,1998.40"/>
    </edge>
    <edge id=":A1_3" function="internal">
        <lane id=":A1_3_0" index="0" speed="3.65" length="4.67" shape="1998.40,2007.20 1999.20,2006.00 2000.00,2005.60 2000.80,2006.00 2001.60,2007.20"/>
    </edge>
    <edge id=":A1_4" function="internal">
        <lane id=":A1_4_0" index="0" speed="6.51" length="9.03" shape="2007.20,2001.60 2004.75,2001.95 2003.00,2003.00 2001.95,2004.75 2001.60,2007.20"/>
    </edge>
    <edge id=":A1_5" function="internal">
        <lane id=":A1_5_0" index="0" speed="13.89" length="14.40" shape="2007.20,2001.60 1992.80,2001.60"/>
    </edge>
    <edge id=":A1_6" function="internal">
        <lane id=":A1_6_0" index="0" speed="7.80" length="13.44" shape="2007.20,2001.60 2004.07,2000.81 2001.24,1998.76 1999.19,1995.93 1998.40,1992.80"/>
    </edge>
    <edge id=":A1_7" function="internal">
        <lane id=":A1_7_0" index="0" speed="3.65" length="4.67" shape="2007.20,2001.60 2006.00,2000.80 2005.60,2000.00 2006.00,1999.20 2007.20,1998.40"/>
    </edge>
    <edge id=":A1_8" function="internal">
        <lane id=":A1_8_0" index="0" speed="6.51" length="9.03" shape="2001.60,1992.80 2001.95,1995.25 2003.00,1997.00 2004.75,1998.05 2007.20,1998.40"/>
    </edge>
    <edge id=":A1_9" function="internal">
        <lane id=":A1_9_0" index="0" speed="13.89" length="14.40" shape="2001.60,1992.80 2001.60,2007.20"/>
    </edge>
    <edge id=":A1_10" function="internal">
        <lane id=":A1_10_0" index="0" speed="7.80" length="13.44" shape="2001.60,1992.80 2000.81,1995.93 1998.76,1998.76 1995.93,2000.81 1992.80,2001.60"/>
    </edge>
    <edge id=":A1_11" function="internal">
        <lane id=":A1_11_0" index="0" speed="3.65" length="4.67" shape="2001.60,1992.80 2000.80,1994.00 2000.00,1994.40 1999.20,1994.00 1998.40,1992.80"/>
    </edge>
    <edge id=":A1_12" function="internal">
        <lane id=":A1_12_0" index="0" speed="6.51" length="9.03" shape="1992.80,1998.40 1995.25,1998.05 1997.00,1997.00 1998.05,1995.25 1998.40,1992.80"/>
    </edge>
    <edge id=":A1_13" function="internal">
        <lane id=":A1_13_0" index="0" speed="13.89" length="14.40" shape="1992.80,1998.40 2007.20,1998.40"/>
    </edge>
    <edge id=":A1_14" function="internal">
        <lane id=":A1_14_0" index="0" speed="7.80" length="13.44" shape="1992.80,1998.40 1995.93,1999.19 1998.76,2001.24 2000.81,2004.07 2001.60,2007.20"/>
    </edge>
    <edge id=":A1_15" function="internal">
        <lane id=":A1_15_0" index="0" speed="3.65" length="4.67" shape="1992.80,1998.40 1994.00,1999.20 1994.40,2000.00 1994.00,2000.80 1992.80,2001.60"/>
    </edge>
    <edge id=":B1_0" function="internal">
        <lane id=":B1_0_0" index="0" speed="12.73" length="15.02" shape="2105.33,2001.60 2102.80,2002.09 2099.87,2003.56 2096.55,2006.00 2092.84,2009.42"/>
    </edge>
    <edge id=":B1_1" function="internal">
        <lane id=":B1_1_0" index="0" speed="13.89" length="17.05" shape="2105.33,2001.60 2088.27,2001.60"/>
    </edge>
    <edge id=":B1_2" function="internal">
        <lane id=":B1_2_0" index="0" speed="13.73" length="5.70" shape="2105.33,2001.60 2102.16,2001.05 2099.91,2000.00"/>
    </edge>
    <edge id=":B1_3" function="internal">
        <lane id=":B1_3_0" index="0" speed="3.65" length="2.34" shape="2105.33,2001.60 2104.13,2000.80 2103.73,2000.00"/>
    </edge>
    <edge id=":B1_16" function="internal">
        <lane id=":B1_16_0" index="0" speed="13.73" length="11.82" shape="2099.91,2000.00 2098.64,1999.41 2094.78,1996.67 2090.58,1992.84"/>
    </edge>
    <edge id=":B1_17" function="internal">
        <lane id=":B1_17_0" index="0" speed="3.65" length="2.34" shape="2103.73,2000.00 2104.13,1999.20 2105.33,1998.40"/>
    </edge>
    <edge id=":B1_4" function="internal">
        <lane id=":B1_4_0" index="0" speed="12.73" length="15.02" shape="2092.84,1990.58 2096.55,1994.00 2099.87,1996.44 2102.80,1997.91 2105.33,1998.40"/>
    </edge>
    <edge id=":B1_5" function="internal">
        <lane id=":B1_5_0" index="0" speed="9.73" length="21.49" shape="2092.84,1990.58 2096.37,1995.29 2097.55,2000.00 2096.37,2004.71 2092.84,2009.42"/>
    </edge>
    <edge id=":B1_6" function="internal">
        <lane id=":B1_6_0" index="0" speed="7.42" length="19.31" shape="2092.84,1990.58 2096.69,1995.40 2097.21,1998.84 2094.41,2000.91 2088.27,2001.60"/>
    </edge>
    <edge id=":B1_7" function="internal">
        <lane id=":B1_7_0" index="0" speed="3.65" length="4.67" shape="2092.84,1990.58 2093.12,1991.99 2092.84,1992.84 2091.99,1993.12 2090.58,1992.84"/>
    </edge>
    <edge id=":B1_8" function="internal">
        <lane id=":B1_8_0" index="0" speed="5.47" length="9.74" shape="2088.27,1998.40 2091.37,1998.05 2092.78,1997.01 2092.52,1995.27 2090.58,1992.84"/>
    </edge>
    <edge id=":B1_9" function="internal">
        <lane id=":B1_9_0" index="0" speed="13.89" length="17.05" shape="2088.27,1998.40 2105.33,1998.40"/>
    </edge>
    <edge id=":B1_10" function="internal">
        <lane id=":B1_10_0" index="0" speed="7.42" length="7.71" shape="2088.27,1998.40 2094.41,1999.09 2095.64,2000.00"/>
    </edge>
    <edge id=":B1_11" function="internal">
        <lane id=":B1_11_0" index="0" speed="3.65" length="2.34" shape="2088.27,1998.40 2089.47,1999.20 2089.87,2000.00"/>
    </edge>
    <edge id=":B1_18" function="internal">
        <lane id=":B1_18_0" index="0" speed="7.42" length="11.60" shape="2095.64,2000.00 2097.21,2001.16 2096.69,2004.60 2092.84,2009.42"/>
    </edge>
    <edge id=":B1_19" function="internal">
        <lane id=":B1_19_0" index="0" speed="3.65" length="2.34" shape="2089.87,2000.00 2089.47,2000.80 2088.27,2001.60"/>
    </edge>
    <edge id=":B1_12" function="internal">
        <lane id=":B1_12_0" index="0" speed="5.47" length="9.74" shape="2090.58,2007.16 2092.52,2004.73 2092.78,2002.99 2091.37,2001.95 2088.27,2001.60"/>
    </edge>
    <edge id=":B1_13" function="internal">
        <lane id=":B1_13_0" index="0" speed="8.54" length="16.33" shape="2090.58,2007.16 2093.26,2003.58 2094.16,2000.00 2093.26,1996.42 2090.58,1992.84"/>
    </edge>
    <edge id=":B1_14" function="internal">
        <lane id=":B1_14_0" index="0" speed="13.71" length="17.48" shape="2090.58,2007.16 2093.67,2004.30 2097.40,2001.45 2101.41,1999.27 2105.33,1998.40"/>
    </edge>
    <edge id=":B1_15" function="internal">
        <lane id=":B1_15_0" index="0" speed="3.65" length="4.67" shape="2090.58,2007.16 2091.99,2006.88 2092.84,2007.16 2093.12,2008.01 2092.84,2009.42"/>
    </edge>
    <edge id=":B2_0" function="internal">
        <lane id=":B2_0_0" index="0" speed="12.73" length="15.02" shape="1998.40,2105.33 1997.91,2102.80 1996.44,2099.87 1994.00,2096.55 1990.58,2092.84"/>
    </edge>
    <edge id=":B2_1" function="internal">
        <lane id=":B2_1_0" index="0" speed="13.89" length="17.05" shape="1998.40,2105.33 1998.40,2088.27"/>
    </edge>
    <edge id=":B2_2" function="internal">
        <lane id=":B2_2_0" index="0" speed="13.73" length="5.70" shape="1998.40,2105.33 1998.95,2102.16 2000.00,2099.91"/>
    </edge>
    <edge id=":B2_3" function="internal">
        <lane id=":B2_3_0" index="0" speed="3.65" length="2.34" shape="1998.40,2105.33 1999.20,2104.13 2000.00,2103.73"/>
    </edge>
    <edge id=":B2_16" function="internal">
        <lane id=":B2_16_0" index="0" speed="13.73" length="11.82" shape="2000.00,2099.91 2000.59,2098.64 2003.33,2094.78 2007.16,2090.58"/>
    </edge>
    <edge id=":B2_17" function="internal">
        <lane id=":B2_17_0" index="0" speed="3.65" length="2.34" shape="2000.00,2103.73 2000.80,2104.13 2001.60,2105.33"/>
    </edge>
    <edge id=":B2_4" function="internal">
        <lane id=":B2_4_0" index="0" speed="12.73" length="15.02" shape="2009.42,2092.84 2006.00,2096.55 2003.56,2099.87 2002.09,2102.80 2001.60,2105.33"/>
    </edge>
    <edge id=":B2_5" function="internal">
        <lane id=":B2_5_0" index="0" speed="9.73" length="21.49" shape="2009.42,2092.84 2004.71,2096.37 2000.00,2097.55 1995.29,2096.37 1990.58,2092.84"/>
    </edge>
    <edge id=":B2_6" function="internal">
        <lane id=":B2_6_0" index="0" speed="7.42" length="19.31" shape="2009.42,2092.84 2004.60,2096.69 2001.16,2097.21 1999.09,2094.41 1998.40,2088.27"/>
    </edge>
    <edge id=":B2_7" function="internal">
        <lane id=":B2_7_0" index="0" speed="3.65" length="4.67" shape="2009.42,2092.84 2008.01,2093.12 2007.16,2092.84 2006.88,2091.99 2007.16,2090.58"/>
    </edge>
    <edge id=":B2_8" function="internal">
        <lane id=":B2_8_0" index="0" speed="5.47" length="9.74" shape="2001.60,2088.27 2001.95,2091.37 2002.99,2092.78 2004.73,2092.52 2007.16,2090.58"/>
    </edge>
    <edge id=":B2_9" function="internal">
        <lane id=":B2_9_0" index="0" speed="13.89" length="17.05" shape="2001.60,2088.27 2001.60,2105.33"/>
    </edge>
    <edge id=":B2_10" function="internal">
        <lane id=":B2_10_0" index="0" speed="7.42" length="7.71" shape="2001.60,2088.27 2000.91,2094.41 2000.00,2095.64"/>
    </edge>
    <edge id=":B2_11" function="internal">
        <lane id=":B2_11_0" index="0" speed="3.65" length="2.34" shape="2001.60,2088.27 2000.80,2089.47 2000.00,2089.87"/>
    </edge>
    <edge id=":B2_18" function="internal">
        <lane id=":B2_18_0" index="0" speed="7.42" length="11.60" shape="2000.00,2095.64 1998.84,2097.21 1995.40,2096.69 1990.58,2092.84"/>
    </edge>
    <edge id=":B2_19" function="internal">
        <lane id=":B2_19_0" index="0" speed="3.65" length="2.34" shape="2000.00,2089.87 1999.20,2089.47 1998.40,2088.27"/>
    </edge>
    <edge id=":B2_12" function="internal">
        <lane id=":B2_12_0" index="0" speed="5.47" length="9.74" shape="1992.84,2090.58 1995.27,2092.52 1997.01,2092.78 1998.05,2091.37 1998.40,2088.27"/>
    </edge>
    <edge id=":B2_13" function="internal">
        <lane id=":B2_13_0" index="0" speed="8.54" length="16.33" shape="1992.84,2090.58 1996.42,2093.26 2000.00,2094.16 2003.58,2093.26 2007.16,2090.58"/>
    </edge>
    <edge id=":B2_14" function="internal">
        <lane id=":B2_14_0" index="0" speed="13.73" length="17.52" shape="1992.84,2090.58 1996.67,2094.78 1999.41,2098.64 2001.05,2102.16 2001.60,2105.33"/>
    </edge>
    <edge id=":B2_15" function="internal">
        <lane id=":B2_15_0" index="0" speed="3.65" length="4.67" shape="1992.84,2090.58 1993.12,2091.99 1992.84,2092.84 1991.99,2093.12 1990.58,2092.84"/>
    </edge>
    <edge id=":B3_0" function="internal">
        <lane id=":B3_0_0" index="0" speed="12.73" length="15.02" shape="1907.16,2009.42 1903.45,2006.00 1900.13,2003.56 1897.20,2002.09 1894.67,2001.60"/>
    </edge>
    <edge id=":B3_1" function="internal">
        <lane id=":B3_1_0" index="0" speed="9.73" length="21.49" shape="1907.16,2009.42 1903.63,2004.71 1902.45,2000.00 1903.63,1995.29 1907.16,1990.58"/>
    </edge>
    <edge id=":B3_2" function="internal">
        <lane id=":B3_2_0" index="0" speed="7.42" length="19.31" shape="1907.16,2009.42 1903.31,2004.60 1902.79,2001.16 1905.59,1999.09 1911.73,1998.40"/>
    </edge>
    <edge id=":B3_3" function="internal">
        <lane id=":B3_3_0" index="0" speed="3.65" length="4.67" shape="1907.16,2009.42 1906.88,2008.01 1907.16,2007.16 1908.01,2006.88 1909.42,2007.16"/>
    </edge>
    <edge id=":B3_4" function="internal">
        <lane id=":B3_4_0" index="0" speed="5.47" length="9.74" shape="1911.73,2001.60 1908.63,2001.95 1907.22,2002.99 1907.48,2004.73 1909.42,2007.16"/>
    </edge>
    <edge id=":B3_5" function="internal">
        <lane id=":B3_5_0" index="0" speed="13.89" length="17.05" shape="1911.73,2001.60 1894.67,2001.60"/>
    </edge>
    <edge id=":B3_6" function="internal">
        <lane id=":B3_6_0" index="0" speed="7.42" length="7.71" shape="1911.73,2001.60 1905.59,2000.91 1904.36,2000.00"/>
    </edge>
    <edge id=":B3_7" function="internal">
        <lane id=":B3_7_0" index="0" speed="3.65" length="2.34" shape="1911.73,2001.60 1910.53,2000.80 1910.13,2000.00"/>
    </edge>
    <edge id=":B3_16" function="internal">
        <lane id=":B3_16_0" index="0" speed="7.42" length="11.60" shape="1904.36,2000.00 1902.79,1998.84 1903.31,1995.40 1907.16,1990.58"/>
    </edge>
    <edge id=":B3_17" function="internal">
        <lane id=":B3_17_0" index="0" speed="3.65" length="2.34" shape="1910.13,2000.00 1910.53,1999.20 1911.73,1998.40"/>
    </edge>
    <edge id=":B3_8" function="internal">
        <lane id=":B3_8_0" index="0" speed="5.47" length="9.74" shape="1909.42,1992.84 1907.48,1995.27 1907.22,1997.01 1908.63,1998.05 1911.73,1998.40"/>
    </edge>
    <edge id=":B3_9" function="internal">
        <lane id=":B3_9_0" index="0" speed="8.54" length="16.33" shape="1909.42,1992.84 1906.74,1996.42 1905.84,2000.00 1906.74,2003.58 1909.42,2007.16"/>
    </edge>
    <edge id=":B3_10" function="internal">
        <lane id=":B3_10_0" index="0" speed="13.73" length="17.52" shape="1909.42,1992.84 1905.22,1996.67 1901.36,1999.41 1897.84,2001.05 1894.67,2001.60"/>
    </edge>
    <edge id=":B3_11" function="internal">
        <lane id=":B3_11_0" index="0" speed="3.65" length="4.67" shape="1909.42,1992.84 1908.01,1993.12 1907.16,1992.84 1906.88,1991.99 1907.16,1990.58"/>
    </edge>
    <edge id=":B3_12" function="internal">
        <lane id=":B3_12_0" index="0" speed="12.73" length="15.02" shape="1894.67,1998.40 1897.20,1997.91 1900.13,1996.44 1903.45,1994.00 1907.16,1990.58"/>
    </edge>
    <edge id=":B3_13" function="internal">
        <lane id=":B3_13_0" index="0" speed="13.89" length="17.05" shape="1894.67,1998.40 1911.73,1998.40"/>
    </edge>
    <edge id=":B3_14" function="internal">
        <lane id=":B3_14_0" index="0" speed="13.73" length="5.70" shape="1894.67,1998.40 1897.84,1998.95 1900.09,2000.00"/>
    </edge>
    <edge id=":B3_15" function="internal">
        <lane id=":B3_15_0" index="0" speed="3.65" length="2.34" shape="1894.67,1998.40 1895.87,1999.20 1896.27,2000.00"/>
    </edge>
    <edge id=":B3_18" function="internal">
        <lane id=":B3_18_0" index="0" speed="13.73" length="11.82" shape="1900.09,2000.00 1901.36,2000.59 1905.22,2003.33 1909.42,2007.16"/>
    </edge>
    <edge id=":B3_19" function="internal">
        <lane id=":B3_19_0" index="0" speed="3.65" length="2.34" shape="1896.27,2000.00 1895.87,2000.80 1894.67,2001.60"/>
    </edge>
    <edge id=":B4_0" function="internal">
        <lane id=":B4_0_0" index="0" speed="5.47" length="9.74" shape="1998.40,1911.73 1998.05,1908.63 1997.01,1907.22 1995.27,1907.48 1992.84,1909.42"/>
    </edge>
    <edge id=":B4_1" function="internal">
        <lane id=":B4_1_0" index="0" speed="13.89" length="17.05" shape="1998.40,1911.73 1998.40,1894.67"/>
    </edge>
    <edge id=":B4_2" function="internal">
        <lane id=":B4_2_0" index="0" speed="7.42" length="7.71" shape="1998.40,1911.73 1999.09,1905.59 2000.00,1904.36"/>
    </edge>
    <edge id=":B4_3" function="internal">
        <lane id=":B4_3_0" index="0" speed="3.65" length="2.34" shape="1998.40,1911.73 1999.20,1910.53 2000.00,1910.13"/>
    </edge>
    <edge id=":B4_16" function="internal">
        <lane id=":B4_16_0" index="0" speed="7.42" length="11.60" shape="2000.00,1904.36 2001.16,1902.79 2004.60,1903.31 2009.42,1907.16"/>
    </edge>
    <edge id=":B4_17" function="internal">
        <lane id=":B4_17_0" index="0" speed="3.65" length="2.34" shape="2000.00,1910.13 2000.80,1910.53 2001.60,1911.73"/>
    </edge>
    <edge id=":B4_4" function="internal">
        <lane id=":B4_4_0" index="0" speed="5.47" length="9.74" shape="2007.16,1909.42 2004.73,1907.48 2002.99,1907.22 2001.95,1908.63 2001.60,1911.73"/>
    </edge>
    <edge id=":B4_5" function="internal">
        <lane id=":B4_5_0" index="0" speed="8.54" length="16.33" shape="2007.16,1909.42 2003.58,1906.74 2000.00,1905.84 1996.42,1906.74 1992.84,1909.42"/>
    </edge>
    <edge id=":B4_6" function="internal">
        <lane id=":B4_6_0" index="0" speed="13.73" length="17.52" shape="2007.16,1909.42 2003.33,1905.22 2000.59,1901.36 1998.95,1897.84 1998.40,1894.67"/>
    </edge>
    <edge id=":B4_7" function="internal">
        <lane id=":B4_7_0" index="0" speed="3.65" length="4.67" shape="2007.16,1909.42 2006.88,1908.01 2007.16,1907.16 2008.01,1906.88 2009.42,1907.16"/>
    </edge>
    <edge id=":B4_8" function="internal">
        <lane id=":B4_8_0" index="0" speed="12.73" length="15.02" shape="2001.60,1894.67 2002.09,1897.20 2003.56,1900.13 2006.00,1903.45 2009.42,1907.16"/>
    </edge>
    <edge id=":B4_9" function="internal">
        <lane id=":B4_9_0" index="0" speed="13.89" length="17.05" shape="2001.60,1894.67 2001.60,1911.73"/>
    </edge>
    <edge id=":B4_10" function="internal">
        <lane id=":B4_10_0" index="0" speed="13.73" length="5.70" shape="2001.60,1894.67 2001.05,1897.84 2000.00,1900.09"/>
    </edge>
    <edge id=":B4_11" function="internal">
        <lane id=":B4_11_0" index="0" speed="3.65" length="2.34" shape="2001.60,1894.67 2000.80,1895.87 2000.00,1896.27"/>
    </edge>
    <edge id=":B4_18" function="internal">
        <lane id=":B4_18_0" index="0" speed="13.73" length="11.82" shape="2000.00,1900.09 1999.41,1901.36 1996.67,1905.22 1992.84,1909.42"/>
    </edge>
    <edge id=":B4_19" function="internal">
        <lane id=":B4_19_0" index="0" speed="3.65" length="2.34" shape="2000.00,1896.27 1999.20,1895.87 1998.40,1894.67"/>
    </edge>
    <edge id=":B4_12" function="internal">
        <lane id=":B4_12_0" index="0" speed="12.73" length="15.02" shape="1990.58,1907.16 1994.00,1903.45 1996.44,1900.13 1997.91,1897.20 1998.40,1894.67"/>
    </edge>
    <edge id=":B4_13" function="internal">
        <lane id=":B4_13_0" index="0" speed="9.73" length="21.49" shape="1990.58,1907.16 1995.29,1903.63 2000.00,1902.45 2004.71,1903.63 2009.42,1907.16"/>
    </edge>
    <edge id=":B4_14" function="internal">
        <lane id=":B4_14_0" index="0" speed="7.42" length="19.31" shape="1990.58,1907.16 1995.40,1903.31 1998.84,1902.79 2000.91,1905.59 2001.60,1911.73"/>
    </edge>
    <edge id=":B4_15" function="internal">
        <lane id=":B4_15_0" index="0" speed="3.65" length="4.67" shape="1990.58,1907.16 1991.99,1906.88 1992.84,1907.16 1993.12,1908.01 1992.84,1909.42"/>
    </edge>
    <edge id=":C1_0" function="internal">
        <lane id=":C1_0_0" index="0" speed="12.73" length="15.02" shape="2205.33,2001.60 2202.80,2002.09 2199.87,2003.56 2196.55,2006.00 2192.84,2009.42"/>
    </edge>
    <edge id=":C1_1" function="internal">
        <lane id=":C1_1_0" index="0" speed="13.89" length="17.05" shape="2205.33,2001.60 2188.27,2001.60"/>
    </edge>
    <edge id=":C1_2" function="internal">
        <lane id=":C1_2_0" index="0" speed="13.73" length="5.70" shape="2205.33,2001.60 2202.16,2001.05 2199.91,2000.00"/>
    </edge>
    <edge id=":C1_3" function="internal">
        <lane id=":C1_3_0" index="0" speed="3.65" length="2.34" shape="2205.33,2001.60 2204.13,2000.80 2203.73,2000.00"/>
    </edge>
    <edge id=":C1_16" function="internal">
        <lane id=":C1_16_0" index="0" speed="13.73" length="11.82" shape="2199.91,2000.00 2198.64,1999.41 2194.78,1996.67 2190.58,1992.84"/>
    </edge>
    <edge id=":C1_17" function="internal">
        <lane id=":C1_17_0" index="0" speed="3.65" length="2.34" shape="2203.73,2000.00 2204.13,1999.20 2205.33,1998.40"/>
    </edge>
    <edge id=":C1_4" function="internal">
        <lane id=":C1_4_0" index="0" speed="12.73" length="15.02" shape="2192.84,1990.58 2196.55,1994.00 2199.87,1996.44 2202.80,1997.91 2205.33,1998.40"/>
    </edge>
    <edge id=":C1_5" function="internal">
        <lane id=":C1_5_0" index="0" speed="9.73" length="21.49" shape="2192.84,1990.58 2196.37,1995.29 2197.55,2000.00 2196.37,2004.71 2192.84,2009.42"/>
    </edge>
    <edge id=":C1_6" function="internal">
        <lane id=":C1_6_0" index="0" speed="7.42" length="19.31" shape="2192.84,1990.58 2196.69,1995.40 2197.21,1998.84 2194.41,2000.91 2188.27,2001.60"/>
    </edge>
    <edge id=":C1_7" function="internal">
        <lane id=":C1_7_0" index="0" speed="3.65" length="4.67" shape="2192.84,1990.58 2193.12,1991.99 2192.84,1992.84 2191.99,1993.12 2190.58,1992.84"/>
    </edge>
    <edge id=":C1_8" function="internal">
        <lane id=":C1_8_0" index="0" speed="5.47" length="9.74" shape="2188.27,1998.40 2191.37,1998.05 2192.78,1997.01 2192.52,1995.27 2190.58,1992.84"/>
    </edge>
    <edge id=":C1_9" function="internal">
        <lane id=":C1_9_0" index="0" speed="13.89" length="17.05" shape="2188.27,1998.40 2205.33,1998.40"/>
    </edge>
    <edge id=":C1_10" function="internal">
        <lane id=":C1_10_0" index="0" speed="7.42" length="7.71" shape="2188.27,1998.40 2194.41,1999.09 2195.64,2000.00"/>
    </edge>
    <edge id=":C1_11" function="internal">
        <lane id=":C1_11_0" index="0" speed="3.65" length="2.34" shape="2188.27,1998.40 2189.47,1999.20 2189.87,2000.00"/>
    </edge>
    <edge id=":C1_18" function="internal">
        <lane id=":C1_18_0" index="0" speed="7.42" length="11.60" shape="2195.64,2000.00 2197.21,2001.16 2196.69,2004.60 2192.84,2009.42"/>
    </edge>
    <edge id=":C1_19" function="internal">
        <lane id=":C1_19_0" index="0" speed="3.65" length="2.34" shape="2189.87,2000.00 2189.47,2000.80 2188.27,2001.60"/>
    </edge>
    <edge id=":C1_12" function="internal">
        <lane id=":C1_12_0" index="0" speed="5.47" length="9.74" shape="2190.58,2007.16 2192.52,2004.73 2192.78,2002.99 2191.37,2001.95 2188.27,2001.60"/>
    </edge>
    <edge id=":C1_13" function="internal">
        <lane id=":C1_13_0" index="0" speed="8.54" length="16.33" shape="2190.58,2007.16 2193.26,2003.58 2194.16,2000.00 2193.26,1996.42 2190.58,1992.84"/>
    </edge>
    <edge id=":C1_14" function="internal">
        <lane id=":C1_14_0" index="0" speed="13.73" length="17.52" shape="2190.58,2007.16 2194.78,2003.33 2198.64,2000.59 2202.16,1998.95 2205.33,1998.40"/>
    </edge>
    <edge id=":C1_15" function="internal">
        <lane id=":C1_15_0" index="0" speed="3.65" length="4.67" shape="2190.58,2007.16 2191.99,2006.88 2192.84,2007.16 2193.12,2008.01 2192.84,2009.42"/>
    </edge>
    <edge id=":C2_0" function="internal">
        <lane id=":C2_0_0" index="0" speed="12.73" length="15.02" shape="1998.40,2205.33 1997.91,2202.80 1996.44,2199.87 1994.00,2196.55 1990.58,2192.84"/>
    </edge>
    <edge id=":C2_1" function="internal">
        <lane id=":C2_1_0" index="0" speed="13.89" length="17.05" shape="1998.40,2205.33 1998.40,2188.27"/>
    </edge>
    <edge id=":C2_2" function="internal">
        <lane id=":C2_2_0" index="0" speed="13.73" length="5.70" shape="1998.40,2205.33 1998.95,2202.16 2000.00,2199.91"/>
    </edge>
    <edge id=":C2_3" function="internal">
        <lane id=":C2_3_0" index="0" speed="3.65" length="2.34" shape="1998.40,2205.33 1999.20,2204.13 2000.00,2203.73"/>
    </edge>
    <edge id=":C2_16" function="internal">
        <lane id=":C2_16_0" index="0" speed="13.73" length="11.82" shape="2000.00,2199.91 2000.59,2198.64 2003.33,2194.78 2007.16,2190.58"/>
    </edge>
    <edge id=":C2_17" function="internal">
        <lane id=":C2_17_0" index="0" speed="3.65" length="2.34" shape="2000.00,2203.73 2000.80,2204.13 2001.60,2205.33"/>
    </edge>
    <edge id=":C2_4" function="internal">
        <lane id=":C2_4_0" index="0" speed="12.73" length="15.02" shape="2009.42,2192.84 2006.00,2196.55 2003.56,2199.87 2002.09,2202.80 2001.60,2205.33"/>
    </edge>
    <edge id=":C2_5" function="internal">
        <lane id=":C2_5_0" index="0" speed="9.73" length="21.49" shape="2009.42,2192.84 2004.71,2196.37 2000.00,2197.55 1995.29,2196.37 1990.58,2192.84"/>
    </edge>
    <edge id=":C2_6" function="internal">
        <lane id=":C2_6_0" index="0" speed="7.42" length="19.31" shape="2009.42,2192.84 2004.60,2196.69 2001.16,2197.21 1999.09,2194.41 1998.40,2188.27"/>
    </edge>
    <edge id=":C2_7" function="internal">
        <lane id=":C2_7_0" index="0" speed="3.65" length="4.67" shape="2009.42,2192.84 2008.01,2193.12 2007.16,2192.84 2006.88,2191.99 2007.16,2190.58"/>
    </edge>
    <edge id=":C2_8" function="internal">
        <lane id=":C2_8_0" index="0" speed="5.47" length="9.74" shape="2001.60,2188.27 2001.95,2191.37 2002.99,2192.78 2004.73,2192.52 2007.16,2190.58"/>
    </edge>
    <edge id=":C2_9" function="internal">
        <lane id=":C2_9_0" index="0" speed="13.89" length="17.05" shape="2001.60,2188.27 2001.60,2205.33"/>
    </edge>
    <edge id=":C2_10" function="internal">
        <lane id=":C2_10_0" index="0" speed="7.42" length="7.71" shape="2001.60,2188.27 2000.91,2194.41 2000.00,2195.64"/>
    </edge>
    <edge id=":C2_11" function="internal">
        <lane id=":C2_11_0" index="0" speed="3.65" length="2.34" shape="2001.60,2188.27 2000.80,2189.47 2000.00,2189.87"/>
    </edge>
    <edge id=":C2_18" function="internal">
        <lane id=":C2_18_0" index="0" speed="7.42" length="11.60" shape="2000.00,2195.64 1998.84,2197.21 1995.40,2196.69 1990.58,2192.84"/>
    </edge>
    <edge id=":C2_19" function="internal">
        <lane id=":C2_19_0" index="0" speed="3.65" length="2.34" shape="2000.00,2189.87 1999.20,2189.47 1998.40,2188.27"/>
    </edge>
    <edge id=":C2_12" function="internal">
        <lane id=":C2_12_0" index="0" speed="5.47" length="9.74" shape="1992.84,2190.58 1995.27,2192.52 1997.01,2192.78 1998.05,2191.37 1998.40,2188.27"/>
    </edge>
    <edge id=":C2_13" function="internal">
        <lane id=":C2_13_0" index="0" speed="8.54" length="16.33" shape="1992.84,2190.58 1996.42,2193.26 2000.00,2194.16 2003.58,2193.26 2007.16,2190.58"/>
    </edge>
    <edge id=":C2_14" function="internal">
        <lane id=":C2_14_0" index="0" speed="13.73" length="17.52" shape="1992.84,2190.58 1996.67,2194.78 1999.41,2198.64 2001.05,2202.16 2001.60,2205.33"/>
    </edge>
    <edge id=":C2_15" function="internal">
        <lane id=":C2_15_0" index="0" speed="3.65" length="4.67" shape="1992.84,2190.58 1993.12,2191.99 1992.84,2192.84 1991.99,2193.12 1990.58,2192.84"/>
    </edge>
    <edge id=":C3_0" function="internal">
        <lane id=":C3_0_0" index="0" speed="12.73" length="15.02" shape="1807.16,2009.42 1803.45,2006.00 1800.13,2003.56 1797.20,2002.09 1794.67,2001.60"/>
    </edge>
    <edge id=":C3_1" function="internal">
        <lane id=":C3_1_0" index="0" speed="9.73" length="21.49" shape="1807.16,2009.42 1803.63,2004.71 1802.45,2000.00 1803.63,1995.29 1807.16,1990.58"/>
    </edge>
    <edge id=":C3_2" function="internal">
        <lane id=":C3_2_0" index="0" speed="7.42" length="19.31" shape="1807.16,2009.42 1803.31,2004.60 1802.79,2001.16 1805.59,1999.09 1811.73,1998.40"/>
    </edge>
    <edge id=":C3_3" function="internal">
        <lane id=":C3_3_0" index="0" speed="3.65" length="4.67" shape="1807.16,2009.42 1806.88,2008.01 1807.16,2007.16 1808.01,2006.88 1809.42,2007.16"/>
    </edge>
    <edge id=":C3_4" function="internal">
        <lane id=":C3_4_0" index="0" speed="5.47" length="9.74" shape="1811.73,2001.60 1808.63,2001.95 1807.22,2002.99 1807.48,2004.73 1809.42,2007.16"/>
    </edge>
    <edge id=":C3_5" function="internal">
        <lane id=":C3_5_0" index="0" speed="13.89" length="17.05" shape="1811.73,2001.60 1794.67,2001.60"/>
    </edge>
    <edge id=":C3_6" function="internal">
        <lane id=":C3_6_0" index="0" speed="7.42" length="7.71" shape="1811.73,2001.60 1805.59,2000.91 1804.36,2000.00"/>
    </edge>
    <edge id=":C3_7" function="internal">
        <lane id=":C3_7_0" index="0" speed="3.65" length="2.34" shape="1811.73,2001.60 1810.53,2000.80 1810.13,2000.00"/>
    </edge>
    <edge id=":C3_16" function="internal">
        <lane id=":C3_16_0" index="0" speed="7.42" length="11.60" shape="1804.36,2000.00 1802.79,1998.84 1803.31,1995.40 1807.16,1990.58"/>
    </edge>
    <edge id=":C3_17" function="internal">
        <lane id=":C3_17_0" index="0" speed="3.65" length="2.34" shape="1810.13,2000.00 1810.53,1999.20 1811.73,1998.40"/>
    </edge>
    <edge id=":C3_8" function="internal">
        <lane id=":C3_8_0" index="0" speed="5.47" length="9.74" shape="1809.42,1992.84 1807.48,1995.27 1807.22,1997.01 1808.63,1998.05 1811.73,1998.40"/>
    </edge>
    <edge id=":C3_9" function="internal">
        <lane id=":C3_9_0" index="0" speed="8.54" length="16.33" shape="1809.42,1992.84 1806.74,1996.42 1805.84,2000.00 1806.74,2003.58 1809.42,2007.16"/>
    </edge>
    <edge id=":C3_10" function="internal">
        <lane id=":C3_10_0" index="0" speed="13.73" length="17.52" shape="1809.42,1992.84 1805.22,1996.67 1801.36,1999.41 1797.84,2001.05 1794.67,2001.60"/>
    </edge>
    <edge id=":C3_11" function="internal">